<?xml version="1.0" encoding="UTF-8"?>

<!-- generated on Mon May 18 23:23:35 2020 by Eclipse SUMO activitygen Version UNKNOWN
<configuration xmlns:xsi="http://www.w3.org/2001/XMLSchema-instance" xsi:noNamespaceSchemaLocation="http://sumo.dlr.de/xsd/activitygenConfiguration.xsd">

    <input>
        <net-file value="activitygen-example.net.xml"/>
        <stat-file value="activitygen-example.stat.xml"/>
    </input>

    <output>
        <output-file value="activitygen-example.trips.rou.xml"/>
    </output>

    <report>
        <debug value="true"/>
    </report>

</configuration>
-->

<routes xmlns:xsi="http://www.w3.org/2001/XMLSchema-instance" xsi:noNamespaceSchemaLocation="http://sumo.dlr.de/xsd/routes_file.xsd">
    <vType id="default" vClass="passenger" color="red"/>
    <vType id="random" vClass="passenger" color="blue"/>
    <vType id="bus" vClass="bus" color="green"/>

    <trip id="randUni501:1" type="random" depart="404.00" departPos="55.93" arrivalPos="112.03" arrivalSpeed="0.00" from="e23t33" to="e24t14"/>
    <trip id="randUni220:1" type="random" depart="669.00" departPos="129.27" arrivalPos="49.22" arrivalSpeed="0.00" from="e41t42" to="e41t31"/>
    <trip id="randUni315:1" type="random" depart="1439.00" departPos="39.73" arrivalPos="14.72" arrivalSpeed="0.00" from="e43t42" to="e32t33"/>
    <trip id="randUni38:1" type="random" depart="1607.00" departPos="76.95" arrivalPos="163.99" arrivalSpeed="0.00" from="e42t43" to="e31t32"/>
    <trip id="randUni538:1" type="random" depart="2539.00" departPos="52.78" arrivalPos="12.39" arrivalSpeed="0.00" from="e32t33" to="e33t23"/>
    <trip id="randUni121:1" type="random" depart="3338.00" departPos="166.09" arrivalPos="109.75" arrivalSpeed="0.00" from="e11t01" to="e43t42"/>
    <trip id="randUni224:1" type="random" depart="3630.00" departPos="12.43" arrivalPos="179.79" arrivalSpeed="0.00" from="e31t32" to="e23t22"/>
    <trip id="randUni310:1" type="random" depart="3682.00" departPos="122.47" arrivalPos="128.94" arrivalSpeed="0.00" from="e12t13" to="e44t43"/>
    <trip id="randUni324:1" type="random" depart="4059.00" departPos="153.46" arrivalPos="52.90" arrivalSpeed="0.00" from="e32t22" to="e12t11"/>
    <trip id="randUni563:1" type="random" depart="4087.00" departPos="141.23" arrivalPos="8.04" arrivalSpeed="0.00" from="e12t22" to="e33t43"/>
    <trip id="randUni111:1" type="random" depart="4124.00" departPos="169.79" arrivalPos="117.92" arrivalSpeed="0.00" from="e24t14" to="e32t33"/>
    <trip id="randUni117:1" type="random" depart="4316.00" departPos="67.41" arrivalPos="119.98" arrivalSpeed="0.00" from="e34t24" to="e44t51"/>
    <trip id="randUni284:1" type="random" depart="4798.00" departPos="2.14" arrivalPos="87.30" arrivalSpeed="0.00" from="e33t34" to="e42t32"/>
    <trip id="randUni586:1" type="random" depart="4983.00" departPos="81.15" arrivalPos="75.99" arrivalSpeed="0.00" from="e44t34" to="e34t24"/>
    <trip id="randUni296:1" type="random" depart="5226.00" departPos="165.37" arrivalPos="81.59" arrivalSpeed="0.00" from="e32t33" to="e13t14"/>
    <trip id="randUni570:1" type="random" depart="5345.00" departPos="128.25" arrivalPos="83.10" arrivalSpeed="0.00" from="e01t11" to="e24t14"/>
    <trip id="randUni223:1" type="random" depart="5426.00" departPos="113.88" arrivalPos="176.98" arrivalSpeed="0.00" from="e42t43" to="e21t31"/>
    <trip id="randUni292:1" type="random" depart="6658.00" departPos="64.85" arrivalPos="164.75" arrivalSpeed="0.00" from="e24t14" to="e24t14"/>
    <trip id="randUni253:1" type="random" depart="7070.00" departPos="17.10" arrivalPos="35.96" arrivalSpeed="0.00" from="e13t12" to="e13t23"/>
    <trip id="randUni411:1" type="random" depart="8172.00" departPos="36.29" arrivalPos="163.33" arrivalSpeed="0.00" from="e42t43" to="e33t43"/>
    <trip id="randUni92:1" type="random" depart="8258.00" departPos="37.48" arrivalPos="127.24" arrivalSpeed="0.00" from="e24t14" to="e21t22"/>
    <trip id="randUni382:1" type="random" depart="8542.00" departPos="121.96" arrivalPos="15.15" arrivalSpeed="0.00" from="e21t31" to="e12t22"/>
    <trip id="randUni423:1" type="random" depart="8724.00" departPos="153.54" arrivalPos="118.94" arrivalSpeed="0.00" from="e13t14" to="e23t22"/>
    <trip id="randUni205:1" type="random" depart="8948.00" departPos="69.47" arrivalPos="18.95" arrivalSpeed="0.00" from="e23t33" to="e23t13"/>
    <trip id="randUni141:1" type="random" depart="9285.00" departPos="82.60" arrivalPos="63.18" arrivalSpeed="0.00" from="e11t01" to="e41t42"/>
    <trip id="randUni167:1" type="random" depart="10347.00" departPos="171.30" arrivalPos="257.45" arrivalSpeed="0.00" from="e33t23" to="e01t11"/>
    <trip id="randUni303:1" type="random" depart="10473.00" departPos="28.87" arrivalPos="47.76" arrivalSpeed="0.00" from="e32t33" to="e34t44"/>
    <trip id="randUni498:1" type="random" depart="11413.00" departPos="84.35" arrivalPos="82.01" arrivalSpeed="0.00" from="e21t11" to="e22t23"/>
    <trip id="randUni477:1" type="random" depart="11712.00" departPos="3.21" arrivalPos="146.19" arrivalSpeed="0.00" from="e13t12" to="e42t43"/>
    <trip id="randUni343:1" type="random" depart="11896.00" departPos="141.83" arrivalPos="112.59" arrivalSpeed="0.00" from="e12t22" to="e13t14"/>
    <trip id="randUni508:1" type="random" depart="12168.00" departPos="107.19" arrivalPos="0.24" arrivalSpeed="0.00" from="e11t12" to="e32t42"/>
    <trip id="randUni86:1" type="random" depart="12423.00" departPos="161.40" arrivalPos="141.36" arrivalSpeed="0.00" from="e41t42" to="e42t41"/>
    <trip id="randUni475:1" type="random" depart="12588.00" departPos="24.67" arrivalPos="116.25" arrivalSpeed="0.00" from="e33t34" to="e44t34"/>
    <trip id="randUni393:1" type="random" depart="12989.00" departPos="93.03" arrivalPos="237.04" arrivalSpeed="0.00" from="e14t13" to="e44t51"/>
    <trip id="randUni30:1" type="random" depart="13198.00" departPos="31.46" arrivalPos="115.87" arrivalSpeed="0.00" from="e42t41" to="e41t42"/>
    <trip id="randUni526:1" type="random" depart="13335.00" departPos="46.27" arrivalPos="106.06" arrivalSpeed="0.00" from="e42t41" to="e34t44"/>
    <trip id="randUni172:1" type="random" depart="13596.00" departPos="178.49" arrivalPos="35.82" arrivalSpeed="0.00" from="e33t23" to="e44t51"/>
    <trip id="randUni214:1" type="random" depart="13859.00" departPos="146.23" arrivalPos="152.13" arrivalSpeed="0.00" from="e23t24" to="e34t24"/>
    <trip id="randUni11:1" type="random" depart="14250.00" departPos="57.98" arrivalPos="75.07" arrivalSpeed="0.00" from="e23t13" to="e22t21"/>
    <trip id="randUni494:1" type="random" depart="14340.00" departPos="44.51" arrivalPos="29.58" arrivalSpeed="0.00" from="e51t44" to="e41t31"/>
    <trip id="randUni342:1" type="random" depart="14377.00" departPos="44.16" arrivalPos="93.47" arrivalSpeed="0.00" from="e24t23" to="e22t21"/>
    <trip id="randUni541:1" type="random" depart="14529.00" departPos="149.41" arrivalPos="44.26" arrivalSpeed="0.00" from="e33t23" to="e32t42"/>
    <trip id="randUni309:1" type="random" depart="14712.00" departPos="104.92" arrivalPos="22.67" arrivalSpeed="0.00" from="e32t22" to="e21t31"/>
    <trip id="randUni390:1" type="random" depart="14885.00" departPos="35.12" arrivalPos="142.16" arrivalSpeed="0.00" from="e34t24" to="e21t31"/>
    <trip id="randUni375:1" type="random" depart="15188.00" departPos="177.72" arrivalPos="172.43" arrivalSpeed="0.00" from="e24t23" to="e42t32"/>
    <trip id="randUni3:1" type="random" depart="15545.00" departPos="97.11" arrivalPos="3.84" arrivalSpeed="0.00" from="e13t14" to="e31t32"/>
    <trip id="randUni135:1" type="random" depart="15650.00" departPos="50.76" arrivalPos="146.21" arrivalSpeed="0.00" from="e12t11" to="e21t31"/>
    <trip id="randUni300:1" type="random" depart="15711.00" departPos="71.57" arrivalPos="64.52" arrivalSpeed="0.00" from="e31t32" to="e33t43"/>
    <trip id="randUni250:1" type="random" depart="17040.00" departPos="152.04" arrivalPos="54.05" arrivalSpeed="0.00" from="e13t23" to="e33t43"/>
    <trip id="randUni274:1" type="random" depart="17111.00" departPos="96.12" arrivalPos="146.56" arrivalSpeed="0.00" from="e41t31" to="e31t21"/>
    <trip id="randUni373:1" type="random" depart="17714.00" departPos="21.13" arrivalPos="5.66" arrivalSpeed="0.00" from="e43t42" to="e12t13"/>
    <trip id="randUni98:1" type="random" depart="18716.00" departPos="46.62" arrivalPos="129.45" arrivalSpeed="0.00" from="e44t34" to="e41t31"/>
    <trip id="randUni59:1" type="random" depart="18856.00" departPos="84.28" arrivalPos="58.66" arrivalSpeed="0.00" from="e44t43" to="e13t12"/>
    <trip id="randUni533:1" type="random" depart="18927.00" departPos="24.38" arrivalPos="110.19" arrivalSpeed="0.00" from="e12t11" to="e34t24"/>
    <trip id="randUni0:1" type="random" depart="19516.00" departPos="74.32" arrivalPos="146.25" arrivalSpeed="0.00" from="e31t41" to="e14t13"/>
    <trip id="randUni31:1" type="random" depart="20205.00" departPos="138.27" arrivalPos="155.76" arrivalSpeed="0.00" from="e21t31" to="e11t12"/>
    <trip id="randUni583:1" type="random" depart="20665.00" departPos="165.29" arrivalPos="28.15" arrivalSpeed="0.00" from="e31t32" to="e22t32"/>
    <trip id="randUni444:1" type="random" depart="20946.00" departPos="20.01" arrivalPos="124.13" arrivalSpeed="0.00" from="e24t23" to="e24t23"/>
    <trip id="randUni188:1" type="random" depart="21229.00" departPos="91.82" arrivalPos="78.17" arrivalSpeed="0.00" from="e43t44" to="e31t32"/>
    <trip id="randUni480:1" type="random" depart="21257.00" departPos="176.19" arrivalPos="130.68" arrivalSpeed="0.00" from="e23t24" to="e13t14"/>
    <trip id="randUni158:1" type="random" depart="21288.00" departPos="74.34" arrivalPos="148.80" arrivalSpeed="0.00" from="e22t32" to="e23t13"/>
    <trip id="randUni91:1" type="random" depart="21302.00" departPos="181.10" arrivalPos="131.25" arrivalSpeed="0.00" from="e14t13" to="e21t22"/>
    <trip id="randUni129:1" type="random" depart="21384.00" departPos="63.83" arrivalPos="5.51" arrivalSpeed="0.00" from="e44t43" to="e23t13"/>
    <trip id="bl101b1:1" type="bus" depart="21600.00" departPos="10.00" arrivalPos="10.00" arrivalSpeed="0.00" from="e11t12" via="e13t14 e14t24 e24t23 e23t33 e33t32 e32t31" to="e31t21"/>
    <trip id="bl101b2:27" type="bus" depart="21600.00" departPos="10.00" arrivalPos="10.00" arrivalSpeed="0.00" from="e21t31" via="e31t32 e32t33 e33t23 e23t24 e24t14 e14t13" to="e13t12"/>
    <trip id="randUni485:1" type="random" depart="21812.00" departPos="6.09" arrivalPos="113.04" arrivalSpeed="0.00" from="e33t34" to="e32t22"/>
    <trip id="randUni236:1" type="random" depart="21823.00" departPos="78.72" arrivalPos="49.95" arrivalSpeed="0.00" from="e14t24" to="e33t32"/>
    <trip id="bl101b3:1" type="bus" depart="21900.00" departPos="10.00" arrivalPos="10.00" arrivalSpeed="0.00" from="e11t12" via="e13t14 e14t24 e24t23 e23t33 e33t32 e32t31" to="e31t21"/>
    <trip id="bl101b4:27" type="bus" depart="21900.00" departPos="10.00" arrivalPos="10.00" arrivalSpeed="0.00" from="e21t31" via="e31t32 e32t33 e33t23 e23t24 e24t14 e14t13" to="e13t12"/>
    <trip id="randUni430:1" type="random" depart="22056.00" departPos="61.34" arrivalPos="81.24" arrivalSpeed="0.00" from="e22t21" to="e11t12"/>
    <trip id="bl101b5:1" type="bus" depart="22200.00" departPos="10.00" arrivalPos="10.00" arrivalSpeed="0.00" from="e11t12" via="e13t14 e14t24 e24t23 e23t33 e33t32 e32t31" to="e31t21"/>
    <trip id="bl101b6:27" type="bus" depart="22200.00" departPos="10.00" arrivalPos="10.00" arrivalSpeed="0.00" from="e21t31" via="e31t32 e32t33 e33t23 e23t24 e24t14 e14t13" to="e13t12"/>
    <trip id="randUni109:1" type="random" depart="22272.00" departPos="91.98" arrivalPos="172.72" arrivalSpeed="0.00" from="e11t12" to="e11t21"/>
    <trip id="randUni396:1" type="random" depart="22368.00" departPos="174.04" arrivalPos="141.59" arrivalSpeed="0.00" from="e13t12" to="e22t21"/>
    <trip id="bl101b7:1" type="bus" depart="22500.00" departPos="10.00" arrivalPos="10.00" arrivalSpeed="0.00" from="e11t12" via="e13t14 e14t24 e24t23 e23t33 e33t32 e32t31" to="e31t21"/>
    <trip id="bl101b8:27" type="bus" depart="22500.00" departPos="10.00" arrivalPos="10.00" arrivalSpeed="0.00" from="e21t31" via="e31t32 e32t33 e33t23 e23t24 e24t14 e14t13" to="e13t12"/>
    <trip id="bl101b2:1" type="bus" depart="22800.00" departPos="10.00" arrivalPos="10.00" arrivalSpeed="0.00" from="e11t12" via="e13t14 e14t24 e24t23 e23t33 e33t32 e32t31" to="e31t21"/>
    <trip id="bl101b1:29" type="bus" depart="22800.00" departPos="10.00" arrivalPos="10.00" arrivalSpeed="0.00" from="e21t31" via="e31t32 e32t33 e33t23 e23t24 e24t14 e14t13" to="e13t12"/>
    <trip id="randUni19:1" type="random" depart="23020.00" departPos="1.10" arrivalPos="175.92" arrivalSpeed="0.00" from="e44t34" to="e24t34"/>
    <trip id="bl101b4:1" type="bus" depart="23100.00" departPos="10.00" arrivalPos="10.00" arrivalSpeed="0.00" from="e11t12" via="e13t14 e14t24 e24t23 e23t33 e33t32 e32t31" to="e31t21"/>
    <trip id="bl101b3:29" type="bus" depart="23100.00" departPos="10.00" arrivalPos="10.00" arrivalSpeed="0.00" from="e21t31" via="e31t32 e32t33 e33t23 e23t24 e24t14 e14t13" to="e13t12"/>
    <trip id="randUni237:1" type="random" depart="23164.00" departPos="145.13" arrivalPos="26.04" arrivalSpeed="0.00" from="e12t13" to="e42t32"/>
    <trip id="randUni18:1" type="random" depart="23286.00" departPos="113.75" arrivalPos="134.22" arrivalSpeed="0.00" from="e21t11" to="e34t33"/>
    <trip id="bl101b6:1" type="bus" depart="23400.00" departPos="10.00" arrivalPos="10.00" arrivalSpeed="0.00" from="e11t12" via="e13t14 e14t24 e24t23 e23t33 e33t32 e32t31" to="e31t21"/>
    <trip id="bl101b5:27" type="bus" depart="23400.00" departPos="10.00" arrivalPos="10.00" arrivalSpeed="0.00" from="e21t31" via="e31t32 e32t33 e33t23 e23t24 e24t14 e14t13" to="e13t12"/>
    <trip id="bl101b8:1" type="bus" depart="23700.00" departPos="10.00" arrivalPos="10.00" arrivalSpeed="0.00" from="e11t12" via="e13t14 e14t24 e24t23 e23t33 e33t32 e32t31" to="e31t21"/>
    <trip id="bl101b7:27" type="bus" depart="23700.00" departPos="10.00" arrivalPos="10.00" arrivalSpeed="0.00" from="e21t31" via="e31t32 e32t33 e33t23 e23t24 e24t14 e14t13" to="e13t12"/>
    <trip id="bl101b1:3" type="bus" depart="24000.00" departPos="10.00" arrivalPos="10.00" arrivalSpeed="0.00" from="e11t12" via="e13t14 e14t24 e24t23 e23t33 e33t32 e32t31" to="e31t21"/>
    <trip id="bl101b2:29" type="bus" depart="24000.00" departPos="10.00" arrivalPos="10.00" arrivalSpeed="0.00" from="e21t31" via="e31t32 e32t33 e33t23 e23t24 e24t14 e14t13" to="e13t12"/>
    <trip id="randUni26:1" type="random" depart="24038.00" departPos="92.82" arrivalPos="70.97" arrivalSpeed="0.00" from="e21t22" to="e21t22"/>
    <trip id="bl101b3:3" type="bus" depart="24300.00" departPos="10.00" arrivalPos="10.00" arrivalSpeed="0.00" from="e11t12" via="e13t14 e14t24 e24t23 e23t33 e33t32 e32t31" to="e31t21"/>
    <trip id="bl101b4:29" type="bus" depart="24300.00" departPos="10.00" arrivalPos="10.00" arrivalSpeed="0.00" from="e21t31" via="e31t32 e32t33 e33t23 e23t24 e24t14 e14t13" to="e13t12"/>
    <trip id="bl101b5:3" type="bus" depart="24600.00" departPos="10.00" arrivalPos="10.00" arrivalSpeed="0.00" from="e11t12" via="e13t14 e14t24 e24t23 e23t33 e33t32 e32t31" to="e31t21"/>
    <trip id="bl101b6:29" type="bus" depart="24600.00" departPos="10.00" arrivalPos="10.00" arrivalSpeed="0.00" from="e21t31" via="e31t32 e32t33 e33t23 e23t24 e24t14 e14t13" to="e13t12"/>
    <trip id="bl101b7:3" type="bus" depart="24900.00" departPos="10.00" arrivalPos="10.00" arrivalSpeed="0.00" from="e11t12" via="e13t14 e14t24 e24t23 e23t33 e33t32 e32t31" to="e31t21"/>
    <trip id="bl101b8:29" type="bus" depart="24900.00" departPos="10.00" arrivalPos="10.00" arrivalSpeed="0.00" from="e21t31" via="e31t32 e32t33 e33t23 e23t24 e24t14 e14t13" to="e13t12"/>
    <trip id="randUni435:1" type="random" depart="25141.00" departPos="170.82" arrivalPos="116.45" arrivalSpeed="0.00" from="e14t24" to="e43t42"/>
    <trip id="bl101b2:3" type="bus" depart="25200.00" departPos="10.00" arrivalPos="10.00" arrivalSpeed="0.00" from="e11t12" via="e13t14 e14t24 e24t23 e23t33 e33t32 e32t31" to="e31t21"/>
    <trip id="bl101b1:31" type="bus" depart="25200.00" departPos="10.00" arrivalPos="10.00" arrivalSpeed="0.00" from="e21t31" via="e31t32 e32t33 e33t23 e23t24 e24t14 e14t13" to="e13t12"/>
    <trip id="bl101b4:3" type="bus" depart="25500.00" departPos="10.00" arrivalPos="10.00" arrivalSpeed="0.00" from="e11t12" via="e13t14 e14t24 e24t23 e23t33 e33t32 e32t31" to="e31t21"/>
    <trip id="bl101b3:31" type="bus" depart="25500.00" departPos="10.00" arrivalPos="10.00" arrivalSpeed="0.00" from="e21t31" via="e31t32 e32t33 e33t23 e23t24 e24t14 e14t13" to="e13t12"/>
    <trip id="randUni148:1" type="random" depart="25736.00" departPos="46.29" arrivalPos="85.77" arrivalSpeed="0.00" from="e32t42" to="e11t21"/>
    <trip id="bl101b6:3" type="bus" depart="25800.00" departPos="10.00" arrivalPos="10.00" arrivalSpeed="0.00" from="e11t12" via="e13t14 e14t24 e24t23 e23t33 e33t32 e32t31" to="e31t21"/>
    <trip id="bl101b5:29" type="bus" depart="25800.00" departPos="10.00" arrivalPos="10.00" arrivalSpeed="0.00" from="e21t31" via="e31t32 e32t33 e33t23 e23t24 e24t14 e14t13" to="e13t12"/>
    <trip id="randUni571:1" type="random" depart="25866.00" departPos="114.53" arrivalPos="161.18" arrivalSpeed="0.00" from="e34t33" to="e34t33"/>
    <trip id="randUni57:1" type="random" depart="25975.00" departPos="96.72" arrivalPos="143.13" arrivalSpeed="0.00" from="e34t44" to="e42t32"/>
    <trip id="bl101b8:3" type="bus" depart="26100.00" departPos="10.00" arrivalPos="10.00" arrivalSpeed="0.00" from="e11t12" via="e13t14 e14t24 e24t23 e23t33 e33t32 e32t31" to="e31t21"/>
    <trip id="bl101b7:29" type="bus" depart="26100.00" departPos="10.00" arrivalPos="10.00" arrivalSpeed="0.00" from="e21t31" via="e31t32 e32t33 e33t23 e23t24 e24t14 e14t13" to="e13t12"/>
    <trip id="randUni305:1" type="random" depart="26258.00" departPos="134.36" arrivalPos="87.88" arrivalSpeed="0.00" from="e41t31" to="e42t32"/>
    <trip id="randUni187:1" type="random" depart="26314.00" departPos="146.19" arrivalPos="88.67" arrivalSpeed="0.00" from="e12t22" to="e34t24"/>
    <trip id="bl101b1:5" type="bus" depart="26400.00" departPos="10.00" arrivalPos="10.00" arrivalSpeed="0.00" from="e11t12" via="e13t14 e14t24 e24t23 e23t33 e33t32 e32t31" to="e31t21"/>
    <trip id="bl101b2:31" type="bus" depart="26400.00" departPos="10.00" arrivalPos="10.00" arrivalSpeed="0.00" from="e21t31" via="e31t32 e32t33 e33t23 e23t24 e24t14 e14t13" to="e13t12"/>
    <trip id="bl101b3:5" type="bus" depart="26700.00" departPos="10.00" arrivalPos="10.00" arrivalSpeed="0.00" from="e11t12" via="e13t14 e14t24 e24t23 e23t33 e33t32 e32t31" to="e31t21"/>
    <trip id="bl101b4:31" type="bus" depart="26700.00" departPos="10.00" arrivalPos="10.00" arrivalSpeed="0.00" from="e21t31" via="e31t32 e32t33 e33t23 e23t24 e24t14 e14t13" to="e13t12"/>
    <trip id="bl101b5:5" type="bus" depart="27000.00" departPos="10.00" arrivalPos="10.00" arrivalSpeed="0.00" from="e11t12" via="e13t14 e14t24 e24t23 e23t33 e33t32 e32t31" to="e31t21"/>
    <trip id="bl101b6:31" type="bus" depart="27000.00" departPos="10.00" arrivalPos="10.00" arrivalSpeed="0.00" from="e21t31" via="e31t32 e32t33 e33t23 e23t24 e24t14 e14t13" to="e13t12"/>
    <trip id="randUni62:1" type="random" depart="27056.00" departPos="78.19" arrivalPos="99.76" arrivalSpeed="0.00" from="e22t32" to="e24t23"/>
    <trip id="randUni438:1" type="random" depart="27064.00" departPos="144.46" arrivalPos="134.35" arrivalSpeed="0.00" from="e12t22" to="e23t13"/>
    <trip id="bl101b7:5" type="bus" depart="27300.00" departPos="10.00" arrivalPos="10.00" arrivalSpeed="0.00" from="e11t12" via="e13t14 e14t24 e24t23 e23t33 e33t32 e32t31" to="e31t21"/>
    <trip id="bl101b8:31" type="bus" depart="27300.00" departPos="10.00" arrivalPos="10.00" arrivalSpeed="0.00" from="e21t31" via="e31t32 e32t33 e33t23 e23t24 e24t14 e14t13" to="e13t12"/>
    <trip id="randUni317:1" type="random" depart="27329.00" departPos="77.67" arrivalPos="106.63" arrivalSpeed="0.00" from="e14t24" to="e44t34"/>
    <trip id="randUni193:1" type="random" depart="27519.00" departPos="99.54" arrivalPos="167.07" arrivalSpeed="0.00" from="e32t22" to="e23t13"/>
    <trip id="randUni427:1" type="random" depart="27538.00" departPos="135.46" arrivalPos="183.03" arrivalSpeed="0.00" from="e34t44" to="e12t13"/>
    <trip id="randUni311:1" type="random" depart="27546.00" departPos="162.31" arrivalPos="110.56" arrivalSpeed="0.00" from="e14t13" to="e42t43"/>
    <trip id="bl101b2:5" type="bus" depart="27600.00" departPos="10.00" arrivalPos="10.00" arrivalSpeed="0.00" from="e11t12" via="e13t14 e14t24 e24t23 e23t33 e33t32 e32t31" to="e31t21"/>
    <trip id="bl101b1:33" type="bus" depart="27600.00" departPos="10.00" arrivalPos="10.00" arrivalSpeed="0.00" from="e21t31" via="e31t32 e32t33 e33t23 e23t24 e24t14 e14t13" to="e13t12"/>
    <trip id="randUni126:1" type="random" depart="27800.00" departPos="49.43" arrivalPos="171.41" arrivalSpeed="0.00" from="e14t24" to="e11t21"/>
    <trip id="bl101b4:5" type="bus" depart="27900.00" departPos="10.00" arrivalPos="10.00" arrivalSpeed="0.00" from="e11t12" via="e13t14 e14t24 e24t23 e23t33 e33t32 e32t31" to="e31t21"/>
    <trip id="bl101b3:33" type="bus" depart="27900.00" departPos="10.00" arrivalPos="10.00" arrivalSpeed="0.00" from="e21t31" via="e31t32 e32t33 e33t23 e23t24 e24t14 e14t13" to="e13t12"/>
    <trip id="randUni461:1" type="random" depart="28043.00" departPos="22.91" arrivalPos="43.77" arrivalSpeed="0.00" from="e41t31" to="e33t32"/>
    <trip id="bl101b6:5" type="bus" depart="28200.00" departPos="10.00" arrivalPos="10.00" arrivalSpeed="0.00" from="e11t12" via="e13t14 e14t24 e24t23 e23t33 e33t32 e32t31" to="e31t21"/>
    <trip id="bl101b5:31" type="bus" depart="28200.00" departPos="10.00" arrivalPos="10.00" arrivalSpeed="0.00" from="e21t31" via="e31t32 e32t33 e33t23 e23t24 e24t14 e14t13" to="e13t12"/>
    <trip id="bl101b8:5" type="bus" depart="28500.00" departPos="10.00" arrivalPos="10.00" arrivalSpeed="0.00" from="e11t12" via="e13t14 e14t24 e24t23 e23t33 e33t32 e32t31" to="e31t21"/>
    <trip id="bl101b7:31" type="bus" depart="28500.00" departPos="10.00" arrivalPos="10.00" arrivalSpeed="0.00" from="e21t31" via="e31t32 e32t33 e33t23 e23t24 e24t14 e14t13" to="e13t12"/>
    <trip id="bl102b1:1" type="bus" depart="28800.00" departPos="10.00" arrivalPos="10.00" arrivalSpeed="0.00" from="e41t31" via="e31t21 e21t11 e11t12 e12t22 e22t32 e32t42" to="e42t41"/>
    <trip id="bl102b2:9" type="bus" depart="28800.00" departPos="10.00" arrivalPos="10.00" arrivalSpeed="0.00" from="e41t42" via="e42t32 e32t22 e22t12 e12t11 e11t21 e21t31" to="e31t41"/>
    <trip id="bl101b1:7" type="bus" depart="28800.00" departPos="10.00" arrivalPos="10.00" arrivalSpeed="0.00" from="e11t12" via="e13t14 e14t24 e24t23 e23t33 e33t32 e32t31" to="e31t21"/>
    <trip id="bl101b2:33" type="bus" depart="28800.00" departPos="10.00" arrivalPos="10.00" arrivalSpeed="0.00" from="e21t31" via="e31t32 e32t33 e33t23 e23t24 e24t14 e14t13" to="e13t12"/>
    <trip id="bl101b3:7" type="bus" depart="29100.00" departPos="10.00" arrivalPos="10.00" arrivalSpeed="0.00" from="e11t12" via="e13t14 e14t24 e24t23 e23t33 e33t32 e32t31" to="e31t21"/>
    <trip id="bl101b4:33" type="bus" depart="29100.00" departPos="10.00" arrivalPos="10.00" arrivalSpeed="0.00" from="e21t31" via="e31t32 e32t33 e33t23 e23t24 e24t14 e14t13" to="e13t12"/>
    <trip id="randUni580:1" type="random" depart="29268.00" departPos="178.14" arrivalPos="127.99" arrivalSpeed="0.00" from="e13t12" to="e33t34"/>
    <trip id="bl102b3:1" type="bus" depart="29400.00" departPos="10.00" arrivalPos="10.00" arrivalSpeed="0.00" from="e41t31" via="e31t21 e21t11 e11t12 e12t22 e22t32 e32t42" to="e42t41"/>
    <trip id="bl102b4:9" type="bus" depart="29400.00" departPos="10.00" arrivalPos="10.00" arrivalSpeed="0.00" from="e41t42" via="e42t32 e32t22 e22t12 e12t11 e11t21 e21t31" to="e31t41"/>
    <trip id="bl101b5:7" type="bus" depart="29400.00" departPos="10.00" arrivalPos="10.00" arrivalSpeed="0.00" from="e11t12" via="e13t14 e14t24 e24t23 e23t33 e33t32 e32t31" to="e31t21"/>
    <trip id="bl101b6:33" type="bus" depart="29400.00" departPos="10.00" arrivalPos="10.00" arrivalSpeed="0.00" from="e21t31" via="e31t32 e32t33 e33t23 e23t24 e24t14 e14t13" to="e13t12"/>
    <trip id="randUni347:1" type="random" depart="29423.00" departPos="45.66" arrivalPos="62.01" arrivalSpeed="0.00" from="e24t23" to="e21t22"/>
    <trip id="bl101b7:7" type="bus" depart="29700.00" departPos="10.00" arrivalPos="10.00" arrivalSpeed="0.00" from="e11t12" via="e13t14 e14t24 e24t23 e23t33 e33t32 e32t31" to="e31t21"/>
    <trip id="bl101b8:33" type="bus" depart="29700.00" departPos="10.00" arrivalPos="10.00" arrivalSpeed="0.00" from="e21t31" via="e31t32 e32t33 e33t23 e23t24 e24t14 e14t13" to="e13t12"/>
    <trip id="h238c1:1" type="default" depart="29892.00" departPos="163.82" arrivalPos="1.00" arrivalSpeed="0.00" from="e31t41" to="e01t11"/>
    <trip id="bl102b2:1" type="bus" depart="30000.00" departPos="10.00" arrivalPos="10.00" arrivalSpeed="0.00" from="e41t31" via="e31t21 e21t11 e11t12 e12t22 e22t32 e32t42" to="e42t41"/>
    <trip id="bl102b1:11" type="bus" depart="30000.00" departPos="10.00" arrivalPos="10.00" arrivalSpeed="0.00" from="e41t42" via="e42t32 e32t22 e22t12 e12t11 e11t21 e21t31" to="e31t41"/>
    <trip id="bl101b2:7" type="bus" depart="30000.00" departPos="10.00" arrivalPos="10.00" arrivalSpeed="0.00" from="e11t12" via="e13t14 e14t24 e24t23 e23t33 e33t32 e32t31" to="e31t21"/>
    <trip id="bl101b1:35" type="bus" depart="30000.00" departPos="10.00" arrivalPos="10.00" arrivalSpeed="0.00" from="e21t31" via="e31t32 e32t33 e33t23 e23t24 e24t14 e14t13" to="e13t12"/>
    <trip id="h49c1:1" type="default" depart="30033.00" departPos="17.03" arrivalPos="84.91" arrivalSpeed="0.00" from="e22t32" to="e23t24"/>
    <trip id="carIn49:1" type="default" depart="30043.00" departPos="1.00" arrivalPos="163.90" arrivalSpeed="0.00" from="e01t11" to="e21t22"/>
    <trip id="carIn3:1" type="default" depart="30058.00" departPos="280.00" arrivalPos="67.31" arrivalSpeed="0.00" from="e44t51" to="e22t23"/>
    <trip id="carIn36:1" type="default" depart="30132.00" departPos="280.00" arrivalPos="75.46" arrivalSpeed="0.00" from="e44t51" to="e21t31"/>
    <trip id="carIn74:1" type="default" depart="30138.00" departPos="280.00" arrivalPos="104.02" arrivalSpeed="0.00" from="e44t51" to="e11t21"/>
    <trip id="carIn20:1" type="default" depart="30172.00" departPos="1.00" arrivalPos="168.13" arrivalSpeed="0.00" from="e01t11" to="e12t22"/>
    <trip id="h470c1:1" type="default" depart="30228.00" departPos="68.56" arrivalPos="183.30" arrivalSpeed="0.00" from="e44t51" to="e23t24"/>
    <trip id="h395c1:1" type="default" depart="30230.00" departPos="163.33" arrivalPos="157.09" arrivalSpeed="0.00" from="e42t43" to="e11t12"/>
    <trip id="h203c1:1" type="default" depart="30231.00" departPos="28.10" arrivalPos="166.04" arrivalSpeed="0.00" from="e33t34" to="e21t22"/>
    <trip id="h198c1:1" type="default" depart="30249.00" departPos="104.79" arrivalPos="104.68" arrivalSpeed="0.00" from="e32t33" to="e12t22"/>
    <trip id="carIn91:1" type="default" depart="30277.00" departPos="1.00" arrivalPos="13.21" arrivalSpeed="0.00" from="e01t11" to="e12t13"/>
    <trip id="h438c1:1" type="default" depart="30283.00" departPos="154.64" arrivalPos="143.16" arrivalSpeed="0.00" from="e43t44" to="e11t21"/>
    <trip id="carIn41:1" type="default" depart="30293.00" departPos="280.00" arrivalPos="53.47" arrivalSpeed="0.00" from="e44t51" to="e21t31"/>
    <trip id="h463c1:1" type="default" depart="30295.00" departPos="141.28" arrivalPos="86.79" arrivalSpeed="0.00" from="e44t51" to="e33t43"/>
    <trip id="bl101b4:7" type="bus" depart="30300.00" departPos="10.00" arrivalPos="10.00" arrivalSpeed="0.00" from="e11t12" via="e13t14 e14t24 e24t23 e23t33 e33t32 e32t31" to="e31t21"/>
    <trip id="bl101b3:35" type="bus" depart="30300.00" departPos="10.00" arrivalPos="10.00" arrivalSpeed="0.00" from="e21t31" via="e31t32 e32t33 e33t23 e23t24 e24t14 e14t13" to="e13t12"/>
    <trip id="carIn198:1" type="default" depart="30307.00" departPos="1.00" arrivalPos="170.26" arrivalSpeed="0.00" from="e01t11" to="e11t12"/>
    <trip id="carIn2:1" type="default" depart="30308.00" departPos="1.00" arrivalPos="57.54" arrivalSpeed="0.00" from="e01t11" to="e14t24"/>
    <trip id="h382c1:1" type="default" depart="30318.00" departPos="115.91" arrivalPos="1.00" arrivalSpeed="0.00" from="e41t42" to="e01t11"/>
    <trip id="h276c1:1" type="default" depart="30326.00" departPos="75.83" arrivalPos="1.21" arrivalSpeed="0.00" from="e32t42" to="e21t31"/>
    <trip id="h349c2:1" type="default" depart="30330.00" departPos="39.35" arrivalPos="24.36" arrivalSpeed="0.00" from="e34t44" to="e21t22"/>
    <trip id="h456c1:1" type="default" depart="30349.00" departPos="71.55" arrivalPos="71.55" arrivalSpeed="0.00" from="e44t51" via="e11t12" to="e44t51"/>
    <trip id="h305c1:1" type="default" depart="30355.00" departPos="179.94" arrivalPos="1.00" arrivalSpeed="0.00" from="e33t43" to="e01t11"/>
    <trip id="h229c2:1" type="default" depart="30377.00" departPos="58.37" arrivalPos="97.22" arrivalSpeed="0.00" from="e31t41" to="e11t12"/>
    <trip id="h348c2:1" type="default" depart="30379.00" departPos="144.22" arrivalPos="258.60" arrivalSpeed="0.00" from="e34t44" to="e01t11"/>
    <trip id="h487c1:1" type="default" depart="30383.00" departPos="137.51" arrivalPos="137.51" arrivalSpeed="0.00" from="e44t51" via="e33t34" to="e44t51"/>
    <trip id="carIn176:1" type="default" depart="30392.00" departPos="280.00" arrivalPos="105.73" arrivalSpeed="0.00" from="e44t51" to="e13t23"/>
    <trip id="h452c1:1" type="default" depart="30404.00" departPos="16.95" arrivalPos="96.61" arrivalSpeed="0.00" from="e43t44" to="e01t11"/>